Version 4
SHEET 1 3436 680
WIRE 1136 0 880 0
WIRE 1664 16 1424 16
WIRE 1616 96 1536 96
WIRE 544 112 336 112
WIRE 736 112 544 112
WIRE 880 112 880 0
WIRE 880 112 736 112
WIRE 912 112 880 112
WIRE 1536 112 1536 96
WIRE 1984 128 1664 112
WIRE 2240 128 1984 128
WIRE 2336 128 2320 128
WIRE 2448 128 2336 128
WIRE 1984 144 1984 128
WIRE 144 160 -48 160
WIRE 880 176 880 112
WIRE 912 176 912 112
WIRE 1088 176 912 176
WIRE 336 192 336 112
WIRE 544 192 544 112
WIRE 736 192 736 112
WIRE 1424 192 1424 16
WIRE 1456 192 1424 192
WIRE 1536 192 1456 192
WIRE 1088 224 1088 176
WIRE 1936 224 1856 224
WIRE 2336 240 2336 128
WIRE 2448 240 2448 128
WIRE 880 256 880 176
WIRE 144 272 144 160
WIRE 336 272 336 256
WIRE 336 272 144 272
WIRE 1856 272 1856 224
WIRE -128 288 -128 160
WIRE -128 288 -272 288
WIRE 544 288 544 256
WIRE 544 288 -48 288
WIRE 736 288 736 256
WIRE 736 288 576 288
WIRE 1456 288 1456 192
WIRE -272 304 -272 288
WIRE 336 304 336 272
WIRE 544 304 544 288
WIRE 736 304 736 288
WIRE -128 416 -128 288
WIRE 576 416 576 288
WIRE 576 416 -48 416
WIRE 336 464 336 368
WIRE 544 464 544 368
WIRE 544 464 336 464
WIRE 736 464 736 368
WIRE 736 464 544 464
WIRE 880 464 880 320
WIRE 880 464 736 464
WIRE 1088 464 1088 304
WIRE 1088 464 880 464
WIRE 1328 464 1088 464
WIRE 1456 480 1456 368
WIRE 1856 480 1856 352
WIRE 1856 480 1456 480
WIRE 1984 480 1984 240
WIRE 1984 480 1856 480
WIRE 2336 480 2336 304
WIRE 2336 480 1984 480
WIRE 1456 496 1456 480
WIRE 2336 496 2336 480
WIRE 2448 496 2448 320
WIRE 2448 496 2336 496
FLAG -272 304 0
FLAG 1456 496 0
FLAG 880 176 Vo2
FLAG 880 464 Vo1
SYMBOL voltage -32 160 R90
WINDOW 0 -32 56 VBottom 2
WINDOW 3 32 56 VTop 2
WINDOW 123 0 0 Left 0
WINDOW 39 0 0 Left 0
SYMATTR InstName V1
SYMATTR Value SINE(0 100 50)
SYMBOL voltage -32 288 R90
WINDOW 0 -32 56 VBottom 2
WINDOW 3 32 56 VTop 2
WINDOW 123 0 0 Left 0
WINDOW 39 0 0 Left 0
SYMATTR InstName V2
SYMATTR Value SINE(0 100 50 0 0 120)
SYMBOL voltage -32 416 R90
WINDOW 0 -32 56 VBottom 2
WINDOW 3 32 56 VTop 2
WINDOW 123 0 0 Left 0
WINDOW 39 0 0 Left 0
SYMATTR InstName V3
SYMATTR Value SINE(0 100 50 0 0 240)
SYMBOL diode 352 256 R180
WINDOW 0 24 64 Left 2
WINDOW 3 24 0 Left 2
SYMATTR InstName D1
SYMATTR Value RFN60TS6D
SYMBOL diode 560 256 R180
WINDOW 0 24 64 Left 2
WINDOW 3 24 0 Left 2
SYMATTR InstName D2
SYMATTR Value RFN60TS6D
SYMBOL diode 752 256 R180
WINDOW 0 24 64 Left 2
WINDOW 3 24 0 Left 2
SYMATTR InstName D3
SYMATTR Value RFN60TS6D
SYMBOL diode 352 368 R180
WINDOW 0 24 64 Left 2
WINDOW 3 24 0 Left 2
SYMATTR InstName D4
SYMATTR Value RFN60TS6D
SYMBOL diode 560 368 R180
WINDOW 0 24 64 Left 2
WINDOW 3 24 0 Left 2
SYMATTR InstName D5
SYMATTR Value RFN60TS6D
SYMBOL diode 752 368 R180
WINDOW 0 24 64 Left 2
WINDOW 3 24 0 Left 2
SYMATTR InstName D6
SYMATTR Value RFN60TS6D
SYMBOL polcap 864 256 R0
WINDOW 3 24 56 Left 2
SYMATTR InstName C1
SYMATTR Value 470µ
SYMATTR Description Capacitor
SYMATTR Type cap
SYMATTR SpiceLine V=200 Irms=2.08 Rser=0.1485 Lser=16.6573n mfg="Würth Elektronik" pn="861011084009 WCAP-AIG8 25x25" type="Al electrolytic"
SYMBOL nmos 1616 16 R0
SYMATTR InstName M1
SYMATTR Value IXTH88N30P
SYMBOL nmos 1936 144 R0
SYMATTR InstName M2
SYMATTR Value IXTH88N30P
SYMBOL ind 2336 112 R90
WINDOW 0 5 56 VBottom 2
WINDOW 3 32 56 VTop 2
SYMATTR InstName L1
SYMATTR Value 1m
SYMBOL cap 2320 240 R0
SYMATTR InstName C2
SYMATTR Value 47µ
SYMBOL voltage 1536 96 R0
WINDOW 123 0 0 Left 0
WINDOW 39 0 0 Left 0
SYMATTR InstName V4
SYMATTR Value PULSE(0 6 0 1u 1u 5u 14u)
SYMBOL voltage 1856 256 R0
WINDOW 123 0 0 Left 0
WINDOW 39 0 0 Left 0
SYMATTR InstName V5
SYMATTR Value PULSE(0 6 7u 1u 1u 5u 14u)
SYMBOL voltage 1456 272 R0
WINDOW 123 0 0 Left 0
WINDOW 39 0 0 Left 0
SYMATTR InstName V6
SYMATTR Value 150
SYMBOL res 2432 224 R0
SYMATTR InstName R1
SYMATTR Value 100
SYMBOL res 1072 208 R0
SYMATTR InstName R2
SYMATTR Value 100
TEXT -210 562 Left 2 !.tran 0 0.5 0
TEXT 2568 136 Left 2 ;gencler once rectifier olmada bakabilirsiniz
TEXT 2576 184 Left 2 ;simulasyonun transient kisminin uzun surmesinin sebebi mosfet secmeniz
TEXT 2600 240 Left 2 ;ya da diyot
TEXT 2624 280 Left 2 ;isa loadsuz simule ediyormussun bir saattir haberin olsun
TEXT 432 632 Left 2 !.ic V(Vo2-Vo1)=170
